*Heading
** Job name: test_CPS4R_IM7-8552-Ply_explicit_VUMAT_uniaxialTension Model name: Model-1
** Generated by: Abaqus/CAE 2016
*Preprint, echo=NO, model=NO, history=NO, contact=NO
*Node
      1,           0.,           0.
      2,  0.150000006,           0.
      3,           0.,  0.150000006
      4,  0.150000006,  0.150000006
*Element, type=CPS4R
1, 1, 2, 4, 3
*Nset, nset=loadApp
 3,
*Nset, nset=loadFollowers
 4,
*Nset, nset=pin
 1,
*Nset, nset=roller
 2,
*Nset, nset=all, generate
 1,  4,  1
*Elset, elset=all
 1,
*Orientation, name=Ori-1
          0.,           1.,           0.,          -1.,           0.,           0.
3, 0.
** Section: Section-1
*Solid Section, elset=all, orientation=Ori-1, material=IM7-8552-Ply-CPS4R
0.15,
**  
** Constraint: LoadApp
*Equation
2
loadFollowers, 2, -1.
loadApp, 2, 1.
*Amplitude, name=Amp-1, definition=SMOOTH STEP
             0.,              0.,             0.1,              1.
** 
** MATERIALS
** 
*Material, name=IM7-8552-Ply-CPS4R
*Density
 1.59e-09,
*Depvar
      1,
*User Material, constants=9
171000.,9100.,9100., 0.32, 0.32, 0.52,5300.,5300.
3000.,
** ----------------------------------------------------------------
** 
** STEP: Step-1
** 
*Step, name=Step-1, nlgeom=NO
*Dynamic, Explicit
, 0.1
*Bulk Viscosity
0.06, 1.2
** Mass Scaling: Semi-Automatic
**               Whole Model
*Fixed Mass Scaling, factor=10000.
** 
** BOUNDARY CONDITIONS
** 
** Name: BC-loadApp Type: Displacement/Rotation
*Boundary, amplitude=Amp-1
loadApp, 2, 2, 0.015
** Name: BC-pin Type: Displacement/Rotation
*Boundary, amplitude=Amp-1
pin, 1, 1
pin, 2, 2
** Name: BC-roller Type: Displacement/Rotation
*Boundary, amplitude=Amp-1
roller, 2, 2
** 
** OUTPUT REQUESTS
** 
*Restart, write, number interval=1, time marks=NO
** 
** FIELD OUTPUT: F-Output-1
** 
*Output, field, variable=PRESELECT
** 
** HISTORY OUTPUT: H-Output-2
** 
*Output, history
*Element Output, elset=all
S11, S22
** 
** HISTORY OUTPUT: H-Output-1
** 
*Output, history, time interval=0.0001
*Node Output, nset=loadApp
RF2, U2
*Energy Output
ALLAE, ALLCD, ALLDMD, ALLFD, ALLIE, ALLKE, ALLMW, ALLPD, ALLSE, ALLVD, ALLWK, ETOTAL
*End Step

